Circuit: * C:\Users\Venkat\Documents\Jlab spring\Lab 1 - Common Emitter Amplifier\sim.asc

WARNING: Node VOUT is floating.

WARNING: Less than two connections to node VOUT.  This node is used by COUT.
Direct Newton iteration for .op point succeeded.

Date: Sun Jan 24 02:40:38 2016
Total elapsed time: 0.138 seconds.

tnom = 27
temp = 27
method = modified trap
totiter = 2094
traniter = 2087
tranpoints = 1042
accept = 1042
rejected = 0
matrix size = 11
fillins = 0
solver = Normal
Matrix Compiler1: 610 bytes object code size  0.2/0.1/[0.0]
Matrix Compiler2: 835 bytes object code size  0.1/0.1/[0.0]


