Circuit: * /Users/vkuruturi/Documents/ECE194/Analog-Design-Projects/Lab 1 - Common Emitter Amplifier/sim.asc

WARNING: Node VOUT is floating.

WARNING: Less than two connections to node VOUT.  This node is used by COUT.
Direct Newton iteration for .op point succeeded.

Date: Tue Jan 26 00:20:13 2016
Total elapsed time: 0.336 seconds.

tnom = 27
temp = 27
method = trap
totiter = 8
traniter = 0
tranpoints = 0
accept = 0
rejected = 0
matrix size = 12
fillins = 0
solver = Normal
Matrix Compiler1:      36 opcodes
Matrix Compiler2:      74 opcodes

